*----------------------------------------------------------------------
* SPICE Model generated by Murata Manufacturing Co., Ltd.
* Copyright(C) Murata Manufacturing Co., Ltd.
* Description :1005M(0402)/X7T/10uF/2.5V
* Murata P/N :GCM155D70E106ME36
* Property : C = 10[uF]
* Data Generated on Feb 1, 2022
*----------------------------------------------------------------------
* Applicable Conditions:
*   Frequency Range = 100Hz-6GHz
*   Temperature = 125 degC
*   DC Bias Voltage = 0V
*   Small Signal Operation
*----------------------------------------------------------------------
.SUBCKT GCM155D70E106ME36_DC0V_125degC port1 port2
C1 port1 11 6.15e-6
L2 11 12 1.36e-10
R3 12 13 4.44e-3
C4 13 14 9.46e-4
R4 13 14 6.94
C5 14 15 1.26e-3
R5 14 15 7.83e-1
C6 15 16 1.33e-3
R6 15 16 1.32e-1
C7 16 17 1.45e-3
R7 16 17 2.39e-2
C8 17 18 1.32e-3
R8 17 18 5.30e-3
C9 18 19 1.00e-3
R9 18 19 1.10e-3
L10 19 20 3.28e-11
R10 19 20 1.24e-1
L11 20 21 5.88e-11
R11 20 21 3.13e-2
L12 21 22 2.29e-10
R12 21 22 1.79e-2
C13 22 23 2.30e-5
L13 22 23 4.81e-11
R13 22 23 3.30e-3
C14 23 24 2.27e-5
L14 23 24 2.55e-11
R14 23 24 3.07e-3
C15 24 port2 2.66e-12
L15 24 port2 3.77e-11
R15 24 port2 3.40
R100 port1 11 5.00e+6
.ENDS GCM155D70E106ME36_DC0V_125degC
